10
-155.2623675107714
 C    0.000002243605    0.934896285210   -1.350304622382
 C    0.000002243605    0.934896285210    0.008121066651
 C    0.000002243605   -0.263692301238    0.896979119827
 C   -0.000007099708   -1.563588238341    0.502534037422
 H   -0.000017456692   -1.862091905806   -0.549821203031
 H   -0.000009547095   -2.378959244511    1.229163485107
 H    0.000009675852   -0.047445804204    1.971945380811
 H    0.000007061928    1.900762793720    0.527175276055
 H    0.000005277443    0.014566238624   -1.941530929033
 H    0.000009380924    1.866984454046   -1.919545753567

