10
-155.26256171450598
 C   -0.049058106371    0.933200505002   -1.348805311353
 C   -0.049058106371    0.933200505002    0.009473188455
 C   -0.049058106371   -0.268511678191    0.893790832996
 C    0.140912341181   -1.555469131173    0.503190225619
 H    0.346631690666   -1.832052438142   -0.534955810236
 H    0.108220355003   -2.379364979322    1.219413407803
 H   -0.234152061394   -0.068527651582    1.955936456799
 H   -0.035911381335    1.898084178028    0.530274357853
 H   -0.077989740438    0.012138442297   -1.938188748941
 H   -0.032238564045    1.864632387051   -1.918895664544

