10
-155.2623675107714
 C    0.000002243605    0.934896285210   -1.350304622382
 C    0.000002243605    0.934896285210    0.008121066651
 C    0.000002243605   -0.263692301238    0.896979119827
 C   -0.000007099708   -1.563588238341    0.502534037422
 H   -0.000017456692   -1.862091905806   -0.549821203031
 H   -0.000009547095   -2.378959244511    1.229163485107
 H    0.000009675852   -0.047445804204    1.971945380811
 H    0.000007061928    1.900762793720    0.527175276055
 H    0.000005277443    0.014566238624   -1.941530929033
 H    0.000009380924    1.866984454046   -1.919545753567

10
-155.26256171450598
 C   -0.049058106371    0.933200505002   -1.348805311353
 C   -0.049058106371    0.933200505002    0.009473188455
 C   -0.049058106371   -0.268511678191    0.893790832996
 C    0.140912341181   -1.555469131173    0.503190225619
 H    0.346631690666   -1.832052438142   -0.534955810236
 H    0.108220355003   -2.379364979322    1.219413407803
 H   -0.234152061394   -0.068527651582    1.955936456799
 H   -0.035911381335    1.898084178028    0.530274357853
 H   -0.077989740438    0.012138442297   -1.938188748941
 H   -0.032238564045    1.864632387051   -1.918895664544

10
-155.26301016176748
 C   -0.097223279865    0.927494288427   -1.348549367643
 C   -0.097223279865    0.927494288427    0.009467852626
 C   -0.097223279865   -0.281116249783    0.883950526669
 C    0.279093153386   -1.532084980759    0.512904615552
 H    0.667399521905   -1.754427170052   -0.485278982010
 H    0.227404261110   -2.374035435900    1.206753757913
 H   -0.449265820694   -0.121750632561    1.910343819491
 H   -0.082755743954    1.890444181494    0.534207017159
 H   -0.140950765187    0.004343167445   -1.933754899203
 H   -0.072083005113    1.857871115972   -1.920171394799

10
-155.26342995676404
 C   -0.143315175074    0.917771396245   -1.350829716113
 C   -0.143315175074    0.917771396245    0.006598536333
 C   -0.143315175074   -0.300710975269    0.867163888376
 C    0.411095701976   -1.494271394377    0.534514070983
 H    0.952404618720   -1.640802142608   -0.404727302994
 H    0.356044670941   -2.358440858696    1.200353625486
 H   -0.640805368223   -0.199660384692    1.839451151810
 H   -0.138692216156    1.877910154703    0.536860325898
 H   -0.186239378555   -0.008646440283   -1.930972012027
 H   -0.118270710647    1.846693665523   -1.924974750950

10
-155.26356512842045
 C   -0.185395927842    0.903441018832   -1.362798295966
 C   -0.185395927842    0.903441018832   -0.006026220560
 C   -0.185395927842   -0.323534139244    0.843570876601
 C    0.531632901055   -1.444962905013    0.580702606284
 H    1.199564261463   -1.512554637870   -0.283018723966
 H    0.482682676057   -2.324682716334    1.226568432650
 H   -0.809187609973   -0.286422872665    1.745187674948
 H   -0.197563498634    1.861075640729    0.528956496662
 H   -0.215872528512   -0.025933681610   -1.939032468318
 H   -0.167252521507    1.831474727289   -1.938882755001

10
-155.26329589614977
 C   -0.221628934419    0.884840686604   -1.385772870622
 C   -0.221628934419    0.884840686604   -0.029670759090
 C   -0.221628934419   -0.348002240203    0.814100207258
 C    0.635675256931   -1.386318189932    0.653022183248
 H    1.409580995989   -1.377072759123   -0.120045523354
 H    0.594416002838   -2.273006613623    1.290089528082
 H   -0.955795427877   -0.377848902314    1.628954054612
 H   -0.251879114560    1.840611547703    0.508360287019
 H   -0.234368173106   -0.046276489681   -1.959799129199
 H   -0.214137405650    1.812556525836   -1.962889368414

10
-155.2626607987441
 C   -0.250612086481    0.862621692200   -1.418269236435
 C   -0.250612086481    0.862621692200   -0.062818960396
 C   -0.250612086481   -0.373588829242    0.780085562047
 C    0.719275882792   -1.319903667105    0.747580138389
 H    1.581526067854   -1.234614235729    0.079901779252
 H    0.681798467257   -2.207142759827    1.384370903720
 H   -1.079674849795   -0.475184420327    1.491934199354
 H   -0.295803396847    1.817331528034    0.476527224090
 H   -0.245593031521   -0.068854454931   -1.991741121166
 H   -0.254562430339    1.790411958217   -1.995583341105

10
-155.26180905636375
 C   -0.271606752403    0.837710397550   -1.456916983231
 C   -0.271606752403    0.837710397550   -0.102018761987
 C   -0.271606752403   -0.400500253100    0.742836893018
 C    0.780124228533   -1.247012486696    0.857011507161
 H    1.712134542612   -1.081744347675    0.308844887191
 H    0.741156577417   -2.132806573494    1.495927925414
 H   -1.177349608415   -0.582490041345    1.335572036861
 H   -0.325459217390    1.792166676888    0.437379897826
 H   -0.252394635777   -0.093177463207   -2.030956552099
 H   -0.284967989068    1.765755315483   -2.033908168737

10
-155.26093265537276
 C   -0.284361561198    0.811153942916   -1.498251383310
 C   -0.284361561198    0.811153942916   -0.143749741463
 C   -0.284361561198   -0.428863777911    0.703386906190
 C    0.817109740856   -1.169278724399    0.973997602725
 H    1.796709040752   -0.916104960805    0.558384646764
 H    0.773453711080   -2.055781117885    1.611761149253
 H   -1.243569162234   -0.702586099406    1.161668461104
 H   -0.338314044976    1.766040104308    0.395062804065
 H   -0.257141987967   -0.118821363344   -2.073447436841
 H   -0.302790076626    1.739520355497   -2.074733517512

10
-155.2602268162987
 C   -0.288865279513    0.783945714421   -1.539671871245
 C   -0.288865279513    0.783945714421   -0.185382694003
 C   -0.288865279513   -0.458284578666    0.662540454464
 C    0.829730433153   -1.088841438059    1.092946765168
 H    1.829763356231   -0.738356071297    0.821453964663
 H    0.781988323190   -1.980721475444    1.722907571650
 H   -1.272092086505   -0.835227577029    0.972479378894
 H   -0.332257949851    1.739707380110    0.352699054742
 H   -0.262220862836   -0.145302686763   -2.116214881553
 H   -0.306230714017    1.712650225845   -2.115681490478

10
-155.25987960793634
 C   -0.285168828486    0.756815381884   -1.579658600352
 C   -0.285168828486    0.756815381884   -0.225368999819
 C   -0.285168828486   -0.487730981532    0.621079498299
 C    0.817703982766   -1.008078847006    1.210162963323
 H    1.805296033305   -0.552409682607    1.091922744601
 H    0.770566779398   -1.910505578216    1.824870644760
 H   -1.256243475025   -0.976373517382    0.771721440463
 H   -0.305745465252    1.713440762439    0.312132695266
 H   -0.269767334395   -0.172110386223   -2.157423454913
 H   -0.293998614731    1.685767579262   -2.155359934396

10
-155.26005666634475
 C   -0.273319886974    0.730195912870   -1.617469212484
 C   -0.273319886974    0.730195912870   -0.262942381345
 C   -0.273319886974   -0.515783992544    0.579964623951
 C    0.780992849999   -0.929336537844    1.323033711494
 H    1.718240604648   -0.365882817370    1.361547807699
 H    0.742518776224   -1.845806574823    1.916998379372
 H   -1.190820707981   -1.117448008520    0.567382936808
 H   -0.260437505115    1.686798296189    0.274388386594
 H   -0.279433777167   -0.198528897282   -2.196112477673
 H   -0.266096248681    1.659035304295   -2.193141495694

10
-155.2608371073049
 C   -0.253450476336    0.704555366143   -1.652413447270
 C   -0.253450476336    0.704555366143   -0.297367920963
 C   -0.253450476336   -0.541271745035    0.540239841193
 C    0.720417070630   -0.854973463177    1.428678485817
 H    1.567377947027   -0.188363816712    1.618477903723
 H    0.700059255333   -1.785079749733    2.001678497514
 H   -1.075502987026   -1.247883400023    0.371591169067
 H   -0.201881802442    1.659347753310    0.240429010341
 H   -0.288488490999   -0.223596823782   -2.231240360459
 H   -0.226072358185    1.632388445876   -2.228796709850

10
-155.2621135590333
 C   -0.225554037474    0.679958724084   -1.685100942606
 C   -0.225554037474    0.679958724084   -0.329333859609
 C   -0.225554037474   -0.562838516464    0.504039466476
 C    0.637068146657   -0.786805477579    1.525721257111
 H    1.364767375432   -0.033781780820    1.844347689859
 H    0.637608311123   -1.725333621015    2.084828745504
 H   -0.923164657219   -1.355047206138    0.204928917830
 H   -0.145572316562    1.632569012995    0.209055178870
 H   -0.281802708244   -0.247409956742   -2.263837917152
 H   -0.180397437326    1.606679293488   -2.261805735067

10
-155.26360577300665
 C   -0.190112254619    0.657625359711   -1.714353769241
 C   -0.190112254619    0.657625359711   -0.357778198493
 C   -0.190112254619   -0.580590191439    0.472705067510
 C    0.534107904981   -0.727326981423    1.610370046104
 H    1.124614320417    0.093511939758    2.029566822987
 H    0.550603290701   -1.666818065383    2.167241142779
 H   -0.749856562461   -1.436770674234    0.075624964674
 H   -0.100277860145    1.609060579284    0.181423773647
 H   -0.255453334654   -0.269632433957   -2.292386724966
 H   -0.138259037894    1.583329372011   -2.291768142347

10
-155.26501419439433
 C   -0.148281440868    0.638911625526   -1.738867694329
 C   -0.148281440868    0.638911625526   -0.381597646434
 C   -0.148281440868   -0.594653236996    0.447541748791
 C    0.414985081236   -0.678721231927    1.679556031311
 H    0.861107791777    0.191738124341    2.170976049023
 H    0.438047389586   -1.614574183715    2.242014949927
 H   -0.567477304713   -1.496042118942   -0.017366902704
 H   -0.066894207593    1.590765153942    0.158521766261
 H   -0.208660816915   -0.289131433939   -2.316195156865
 H   -0.100593980618    1.564273571672   -2.316922024593

10
-155.26612845401513
 C   -0.101578672341    0.624874085806   -1.757300491860
 C   -0.101578672341    0.624874085806   -0.399513347886
 C   -0.101578672341   -0.604937159358    0.429213688041
 C    0.283562934085   -0.642741014930    1.730688943785
 H    0.582169816400    0.261626178091    2.270317714536
 H    0.304352174997   -1.573704062612    2.301148280218
 H   -0.380476461977   -1.536551750614   -0.079687070838
 H   -0.041197799257    1.577984348750    0.141427944162
 H   -0.146899981112   -0.304362337230   -2.334108531666
 H   -0.065843477846    1.550360520109   -2.335876054542

10
-155.2668313509866
 C   -0.051580097396    0.616107166700   -1.769161585145
 C   -0.051580097396    0.616107166700   -0.410909235834
 C   -0.051580097396   -0.611295994608    0.418373854900
 C    0.143896231184   -0.620435820978    1.762465981746
 H    0.293376939439    0.304062431135    2.329385724109
 H    0.155522501850   -1.547785032546    2.338840271232
 H   -0.191073153891   -1.560784608601   -0.114913566475
 H   -0.019924056544    1.570769621065    0.130424333280
 H   -0.075841229241   -0.314254335412   -2.345589223656
 H   -0.032942625019    1.542246667424   -2.347304076288

10
-155.26707081413508
 C    0.000001428059    0.613148860054   -1.773017928304
 C    0.000001428059    0.613148860054   -0.414635082365
 C    0.000001428059   -0.613382099858    0.414621247464
 C    0.000003977595   -0.612962833713    1.773014729008
 H   -0.000012076828    0.318018573772    2.348957248868
 H   -0.000002160231   -1.538916294054    2.351731422013
 H    0.000002252332   -1.568583624165   -0.126689045967
 H   -0.000022894327    1.568248441751    0.126892981686
 H   -0.000019205595   -0.317572877367   -2.349370611335
 H   -0.000044286839    1.539367942695   -2.351319172010
