%chk=1_final.chk
%oldchk=1_promol.chk
#p b3lyp/6-31G* em=gd3bj ExtraLinks=L608 nosymm guess=read

opted geometry

  0  1
C      0.00000224   -0.26369230    0.89697912
C     -0.00000710   -1.56358824    0.50253404
H     -0.00001746   -1.86209191   -0.54982120
H     -0.00000955   -2.37895924    1.22916349
H      0.00000968   -0.04744580    1.97194538
C      0.00000224    0.93489629   -1.35030462
C      0.00000224    0.93489629    0.00812107
H      0.00000706    1.90076279    0.52717528
H      0.00000528    0.01456624   -1.94153093
H      0.00000938    1.86698445   -1.91954575

-5 5

