%chk=1_fragment2.chk
#p b3lyp/6-31G* em=gd3bj ExtraLinks=L608 nosymm

opted geometry

  0  2
C      0.00000224    0.93489629   -1.35030462
C      0.00000224    0.93489629    0.00812107
H      0.00000706    1.90076279    0.52717528
H      0.00000528    0.01456624   -1.94153093
H      0.00000938    1.86698445   -1.91954575

-5 5

