%chk=1_fragment1.chk
#p b3lyp/6-31G* em=gd3bj ExtraLinks=L608 nosymm

opted geometry

  0  2
C      0.00000224   -0.26369230    0.89697912
C     -0.00000710   -1.56358824    0.50253404
H     -0.00001746   -1.86209191   -0.54982120
H     -0.00000955   -2.37895924    1.22916349
H      0.00000968   -0.04744580    1.97194538

-5 5

