%chk=2_fragment2.chk
#p b3lyp/6-31G* em=gd3bj ExtraLinks=L608 nosymm

opted geometry

  0  2
C     -0.04905811    0.93320051   -1.34880531
C     -0.04905811    0.93320051    0.00947319
H     -0.03591138    1.89808418    0.53027436
H     -0.07798974    0.01213844   -1.93818875
H     -0.03223856    1.86463239   -1.91889566

-5 5

