%chk=2_fragment1.chk
#p b3lyp/6-31G* em=gd3bj ExtraLinks=L608 nosymm

opted geometry

  0  2
C     -0.04905811   -0.26851168    0.89379083
C      0.14091234   -1.55546913    0.50319023
H      0.34663169   -1.83205244   -0.53495581
H      0.10822036   -2.37936498    1.21941341
H     -0.23415206   -0.06852765    1.95593646

-5 5

