%chk=3_fragment2.chk
#p b3lyp/6-31G* em=gd3bj ExtraLinks=L608 nosymm

opted geometry

  0  2
C     -0.09722328    0.92749429   -1.34854937
C     -0.09722328    0.92749429    0.00946785
H     -0.08275574    1.89044418    0.53420702
H     -0.14095077    0.00434317   -1.93375490
H     -0.07208301    1.85787112   -1.92017139

-5 5

